Version 4
SHEET 1 2480 932
WIRE 1936 -704 1776 -704
WIRE 1776 -640 1776 -704
WIRE 1808 -640 1776 -640
WIRE 1936 -624 1936 -704
WIRE 1936 -624 1872 -624
WIRE 2048 -624 1936 -624
WIRE 1808 -608 1792 -608
WIRE 1792 -592 1792 -608
WIRE 1792 -592 784 -592
WIRE 1504 -480 1504 -512
WIRE 1504 -480 1344 -480
WIRE 1648 -480 1504 -480
WIRE 1344 -464 1344 -480
WIRE 1648 -464 1648 -480
WIRE 128 -432 128 -448
WIRE 384 -432 384 -448
WIRE 224 -384 192 -384
WIRE 320 -384 224 -384
WIRE 1344 -352 1344 -384
WIRE 1648 -352 1648 -384
WIRE 128 -304 128 -336
WIRE 224 -304 224 -384
WIRE 224 -304 128 -304
WIRE 1440 -304 1408 -304
WIRE 1584 -304 1440 -304
WIRE 384 -272 384 -336
WIRE 560 -272 384 -272
WIRE 704 -256 624 -256
WIRE 736 -256 704 -256
WIRE 384 -240 384 -272
WIRE 560 -240 528 -240
WIRE 1344 -224 1344 -256
WIRE 1440 -224 1440 -304
WIRE 1440 -224 1344 -224
WIRE 736 -176 736 -256
WIRE 864 -176 736 -176
WIRE 1024 -176 960 -176
WIRE 528 -144 528 -240
WIRE 784 -144 784 -592
WIRE 784 -144 528 -144
WIRE 384 -128 384 -160
WIRE 384 -128 352 -128
WIRE 864 -128 736 -128
WIRE 1648 -112 1648 -256
WIRE 1744 -112 1648 -112
WIRE 1792 -112 1792 -592
WIRE 1792 -112 1744 -112
WIRE 384 -80 384 -128
WIRE 1120 -80 1120 -128
WIRE 528 -16 528 -144
WIRE 560 -16 528 -16
WIRE 672 0 624 0
WIRE 736 0 736 -128
WIRE 736 0 672 0
WIRE 384 16 384 0
WIRE 560 16 384 16
WIRE 1120 16 1120 0
WIRE 1200 16 1120 16
WIRE 1760 16 1264 16
WIRE 1120 48 1120 16
WIRE 1344 48 1344 -224
WIRE 1648 48 1648 -112
WIRE 1200 96 1200 16
WIRE 1200 96 1184 96
WIRE 1264 96 1264 16
WIRE 1264 96 1200 96
WIRE 1280 96 1264 96
WIRE 1760 96 1760 16
WIRE 1760 96 1712 96
WIRE 1920 160 1920 144
WIRE 1120 192 1120 144
WIRE 704 224 560 224
WIRE 736 224 704 224
WIRE 864 224 816 224
WIRE 1344 224 1344 144
WIRE 1648 224 1648 144
WIRE 128 272 128 -304
WIRE 384 272 384 16
WIRE 704 272 704 224
WIRE 448 320 192 320
WIRE 560 320 560 224
WIRE 560 320 448 320
WIRE 640 320 560 320
WIRE 1120 320 1120 272
WIRE 1344 368 1344 304
WIRE 1472 368 1344 368
WIRE 1648 368 1648 304
WIRE 1776 368 1648 368
WIRE 128 384 128 368
WIRE 384 384 384 368
WIRE 704 384 704 368
WIRE 1472 384 1472 368
WIRE 1776 384 1776 368
WIRE 864 416 864 224
WIRE 1344 416 1344 368
WIRE 1648 416 1648 368
WIRE 1440 432 1392 432
WIRE 1728 432 1696 432
WIRE 1472 480 1472 464
WIRE 1776 480 1776 464
WIRE 1392 496 1392 480
WIRE 864 528 864 496
WIRE 1024 544 1024 -176
WIRE 1728 544 1728 432
WIRE 1728 544 1024 544
WIRE 976 576 976 -128
WIRE 1440 576 1440 432
WIRE 1440 576 976 576
WIRE 1344 624 1344 496
WIRE 1504 624 1344 624
WIRE 1648 624 1648 496
WIRE 1648 624 1504 624
WIRE 1504 656 1504 624
FLAG 704 384 0
FLAG 384 384 0
FLAG 128 384 0
FLAG 864 528 0
FLAG -144 -16 0
FLAG 0 -16 0
FLAG 352 -128 V6
FLAG -144 -96 V12
FLAG 0 -96 V24
FLAG 384 -448 V12
FLAG 128 -448 V12
FLAG 592 -224 0
FLAG 592 32 0
FLAG 592 -288 V12
FLAG 592 -32 V12
FLAG 1840 -592 0
FLAG 1840 -656 V12
FLAG -144 208 0
FLAG -144 128 V-24
FLAG 1120 320 0
FLAG 1776 480 V6
FLAG 1472 480 V6
FLAG 1120 -128 V40
FLAG 1792 -48 0
FLAG 1504 -512 V12
FLAG 1744 -112 Out
FLAG 0 208 0
FLAG 0 128 V40
FLAG -144 384 0
FLAG -144 304 V6
FLAG 1504 656 0
FLAG 1920 240 0
FLAG 1392 496 0
FLAG 1696 480 0
FLAG 1920 400 0
FLAG 704 -336 V12
FLAG 672 -80 V12
FLAG 976 -432 0
SYMBOL npn 192 272 M0
SYMATTR InstName Q1
SYMATTR Value BC548B
SYMBOL npn 448 272 M0
SYMATTR InstName Q2
SYMATTR Value BC548B
SYMBOL npn 640 272 R0
SYMATTR InstName Q3
SYMATTR Value BC548B
SYMBOL pnp 192 -336 R180
SYMATTR InstName Q4
SYMATTR Value BC558C
SYMBOL pnp 320 -336 M180
SYMATTR InstName Q5
SYMATTR Value BC558C
SYMBOL res 368 -256 R0
SYMATTR InstName R1
SYMATTR Value 200
SYMBOL res 368 -96 R0
SYMATTR InstName R2
SYMATTR Value 200
SYMBOL res 832 208 R90
WINDOW 0 0 56 VBottom 2
WINDOW 3 32 56 VTop 2
SYMATTR InstName R3
SYMATTR Value 10k
SYMBOL voltage -144 -112 R0
WINDOW 123 0 0 Left 0
WINDOW 39 0 0 Left 0
WINDOW 3 24 44 Left 2
SYMATTR Value 12
SYMATTR InstName V1
SYMBOL voltage 0 -112 R0
WINDOW 123 0 0 Left 0
WINDOW 39 0 0 Left 0
SYMATTR InstName V2
SYMATTR Value 24
SYMBOL voltage 864 400 R0
WINDOW 123 0 0 Left 0
WINDOW 39 0 0 Left 0
SYMATTR InstName V3
SYMATTR Value 44
SYMBOL Opamps\\opamp2 592 -320 R0
SYMATTR InstName U1
SYMATTR Value LM393
SYMBOL Opamps\\opamp2 592 -64 R0
SYMATTR InstName U2
SYMATTR Value LM393
SYMBOL Digital\\srflop 912 -224 R0
WINDOW 3 -40 28 Left 2
SYMATTR Value Ic=1
SYMATTR InstName A1
SYMBOL Opamps\\opamp2 1840 -688 R0
SYMATTR InstName U5
SYMATTR Value TL081
SYMBOL voltage -144 112 R0
WINDOW 123 0 0 Left 0
WINDOW 39 0 0 Left 0
SYMATTR InstName V4
SYMATTR Value -24
SYMBOL npn 1280 48 R0
SYMATTR InstName Q6
SYMATTR Value BC548B
SYMBOL npn 1712 48 M0
SYMATTR InstName Q7
SYMATTR Value BC548B
SYMBOL res 1328 208 R0
SYMATTR InstName R4
SYMATTR Value 100
SYMBOL res 1632 208 R0
SYMATTR InstName R5
SYMATTR Value 100
SYMBOL res 1760 368 R0
SYMATTR InstName R6
SYMATTR Value 1k
SYMBOL res 1456 368 R0
SYMATTR InstName R7
SYMATTR Value 1k
SYMBOL npn 1184 48 M0
SYMATTR InstName Q8
SYMATTR Value BC548B
SYMBOL res 1104 176 R0
SYMATTR InstName R8
SYMATTR Value 100
SYMBOL res 1104 -96 R0
SYMATTR InstName R9
SYMATTR Value 15k
SYMBOL cap 1776 -112 R0
SYMATTR InstName C1
SYMATTR Value 0.47µ
SYMBOL pnp 1584 -256 M180
SYMATTR InstName Q9
SYMATTR Value BC558C
SYMBOL pnp 1408 -256 R180
SYMATTR InstName Q10
SYMATTR Value BC558C
SYMBOL res 1328 -480 R0
SYMATTR InstName R10
SYMATTR Value 30
SYMBOL res 1632 -480 R0
SYMATTR InstName R11
SYMATTR Value 30
SYMBOL voltage 0 112 R0
WINDOW 123 0 0 Left 0
WINDOW 39 0 0 Left 0
SYMATTR InstName V5
SYMATTR Value 40
SYMBOL voltage -144 288 R0
WINDOW 123 0 0 Left 0
WINDOW 39 0 0 Left 0
SYMATTR InstName V6
SYMATTR Value 6
SYMBOL voltage 1920 144 R0
WINDOW 123 0 0 Left 0
WINDOW 39 0 0 Left 0
WINDOW 3 -120 60 Left 2
SYMATTR Value PULSE(0 1 0 0.1f 0.1f 25u 50u)
SYMATTR InstName V7
SYMBOL sw 1344 512 R180
SYMATTR InstName S1
SYMATTR Value MySW
SYMBOL sw 1648 512 R180
SYMATTR InstName S2
SYMATTR Value MySW
SYMBOL voltage 1920 304 R0
WINDOW 123 0 0 Left 0
WINDOW 39 0 0 Left 0
WINDOW 3 -119 58 Left 2
SYMATTR Value PULSE(0 1 25u 1f 1f 25u 50u)
SYMATTR InstName V8
SYMBOL res 688 -352 R0
SYMATTR InstName R12
SYMATTR Value 10k
SYMBOL res 656 -96 R0
SYMATTR InstName R13
SYMATTR Value 10k
SYMBOL voltage 880 -432 R270
WINDOW 0 32 56 VTop 2
WINDOW 3 -32 56 VBottom 2
WINDOW 123 0 0 Left 0
WINDOW 39 0 0 Left 0
SYMATTR InstName V9
SYMATTR Value PULSE(3 9 0 1m 1m 0 2m)
TEXT 8 -544 Left 2 !.include standard_bjt.lib
TEXT 176 456 Left 2 !.tran 0 100m 0
TEXT 8 -592 Left 2 !.include LM393.5_1
TEXT 8 -640 Left 2 !.include TL081.301
TEXT -8 -696 Left 2 !.model MySW SW(Vt=1 Vh=-0.4  Ron=0.01p Roff = 1meg)
