Version 4
SHEET 1 1524 904
WIRE 752 240 752 224
WIRE 800 240 752 240
WIRE 928 240 880 240
WIRE 1056 240 1056 224
WIRE 752 352 752 240
WIRE 800 352 752 352
WIRE 1056 352 1056 320
WIRE 928 368 928 240
WIRE 928 368 864 368
WIRE 944 368 928 368
WIRE 1008 368 944 368
WIRE 240 384 240 368
WIRE 800 384 624 384
WIRE 944 416 944 368
WIRE 624 464 624 384
WIRE 1056 496 1056 448
WIRE 1200 576 1056 576
WIRE 672 640 576 640
WIRE 576 656 576 640
FLAG 576 736 0
FLAG 624 544 0
FLAG -128 368 0
FLAG 16 368 0
FLAG -128 288 V-24
FLAG 16 288 V24
FLAG 240 384 0
FLAG 240 288 V12
FLAG 752 144 0
FLAG 832 336 V24
FLAG 1056 224 V12
FLAG 944 496 0
FLAG 832 400 V-24
FLAG -160 528 0
FLAG -160 448 V-12
FLAG 1200 640 0
SYMBOL voltage 624 448 R0
WINDOW 123 0 0 Left 0
WINDOW 39 0 0 Left 0
WINDOW 3 -184 132 Left 2
SYMATTR Value PULSE(0 1 0 0.1n 0.1n 1m 2m)
SYMATTR InstName V1
SYMBOL voltage 576 640 R0
WINDOW 123 0 0 Left 0
WINDOW 39 0 0 Left 0
WINDOW 3 -153 135 Left 2
SYMATTR Value PULSE(0 1 1m 0.1n 0.1n 1m 2m)
SYMATTR InstName V2
SYMBOL voltage -128 272 R0
WINDOW 123 0 0 Left 0
WINDOW 39 0 0 Left 0
SYMATTR InstName V3
SYMATTR Value -24
SYMBOL voltage 16 272 R0
WINDOW 123 0 0 Left 0
WINDOW 39 0 0 Left 0
SYMATTR InstName V4
SYMATTR Value 24
SYMBOL voltage 240 272 R0
WINDOW 123 0 0 Left 0
WINDOW 39 0 0 Left 0
SYMATTR InstName V5
SYMATTR Value 12
SYMBOL Opamps\\opamp2 832 304 R0
SYMATTR InstName U1
SYMATTR Value TL081
SYMBOL res 896 224 R90
WINDOW 0 0 56 VBottom 2
WINDOW 3 32 56 VTop 2
SYMATTR InstName R1
SYMATTR Value 55k
SYMBOL res 768 240 R180
WINDOW 0 36 76 Left 2
WINDOW 3 36 40 Left 2
SYMATTR InstName R2
SYMATTR Value 5k
SYMBOL pmos 1008 448 M180
SYMATTR InstName M2
SYMATTR Value BSP205/PLP
SYMATTR Prefix X
SYMBOL res 1040 480 R0
SYMATTR InstName R3
SYMATTR Value 5
SYMBOL res 928 400 R0
SYMATTR InstName R5
SYMATTR Value 200k
SYMBOL voltage -160 432 R0
WINDOW 123 0 0 Left 0
WINDOW 39 0 0 Left 0
SYMATTR InstName V7
SYMATTR Value -12
SYMBOL res 1040 224 R0
SYMATTR InstName R4
SYMATTR Value 10k
SYMBOL cap 1184 576 R0
SYMATTR InstName C1
SYMATTR Value 1µ
TEXT -160 152 Left 2 !.include standard_bjt.lib
TEXT -160 104 Left 2 !.include LM393.5_1
TEXT -160 56 Left 2 !.include TL081.301
TEXT -8 600 Left 2 !.tran 0 1 990m
TEXT -312 192 Left 2 !.include phil_fet.lib
